class_materials_full/Lab 4 - myResults/case300extended2.py
# Copyright (c) 1996-2015 PSERC. All rights reserved.
# Use of this source code is governed by a BSD-style
# license that can be found in the LICENSE file.

"""Power flow data for IEEE 300 bus test case.
"""

from numpy import array

def case300extended2():
    """Power flow data for IEEE 300 bus test case.
    Please see L{caseformat} for details on the case file format.

    This data was converted from IEEE Common Data Format
    (ieee300cdf.txt) on 20-Sep-2004 by cdf2matp, rev. 1.11
    See end of file for warnings generated during conversion.

    Converted from IEEE CDF file from:
    U{http://www.ee.washington.edu/research/pstca/}

    13/05/91 CYME INTERNATIONAL    100.0 1991 S IEEE 300-BUS TEST SYSTEM

    @return: Power flow data for IEEE 300 bus test case.
    """
    ppc = {"version": '2'}

    ##-----  Power Flow Data  -----##
    ## system MVA base
    ppc["baseMVA"] = 100.0

    ## bus data
    # bus_i type Pd Qd Gs Bs area Vm Va baseKV zone Vmax Vmin
    ppc["bus"] = array([
    [1, 1, 90, 49, 0, 0, 1, 1.0284, 5.9500000000000002, 115, 1, 1.0600000000000001, 0.93999999999999995],
    [2, 1, 56, 15, 0, 0, 1, 1.0354000000000001, 7.7400000000000002, 115, 1, 1.0600000000000001, 0.93999999999999995],
    [3, 1, 20, 0, 0, 0, 1, 0.99709999999999999, 6.6399999999999997, 230, 1, 1.0600000000000001, 0.93999999999999995],
    [4, 1, 0, 0, 0, 0, 1, 1.0307999999999999, 4.71, 345, 1, 1.0600000000000001, 0.93999999999999995],
    [5, 1, 353, 130, 0, 0, 1, 1.0190999999999999, 4.6799999999999997, 115, 1, 1.0600000000000001, 0.93999999999999995],
    [6, 1, 120, 41, 0, 0, 1, 1.0311999999999999, 6.9900000000000002, 115, 1, 1.0600000000000001, 0.93999999999999995],
    [7, 1, 0, 0, 0, 0, 1, 0.99339999999999995, 6.1900000000000004, 230, 1, 1.0600000000000001, 0.93999999999999995],
    [8, 2, 63, 14, 0, 0, 1, 1.0153000000000001, 2.3999999999999999, 115, 1, 1.0600000000000001, 0.93999999999999995],
    [9, 1, 96, 43, 0, 0, 1, 1.0034000000000001, 2.8500000000000001, 115, 1, 1.0600000000000001, 0.93999999999999995],
    [10, 2, 153, 33, 0, 0, 1, 1.0205, 1.3500000000000001, 230, 1, 1.0600000000000001, 0.93999999999999995],
    [11, 1, 83, 21, 0, 0, 1, 1.0057, 2.46, 115, 1, 1.0600000000000001, 0.93999999999999995],
    [12, 1, 0, 0, 0, 0, 1, 0.99739999999999995, 5.21, 230, 1, 1.0600000000000001, 0.93999999999999995],
    [13, 1, 58, 10, 0, 0, 1, 0.99770000000000003, -0.55000000000000004, 115, 1, 1.0600000000000001, 0.93999999999999995],
    [14, 1, 160, 60, 0, 0, 1, 0.99909999999999999, -4.8099999999999996, 115, 1, 1.0600000000000001, 0.93999999999999995],
    [15, 1, 126.7, 23, 0, 0, 1, 1.0343, -8.5899999999999999, 115, 1, 1.0600000000000001, 0.93999999999999995],
    [16, 1, 0, 0, 0, 0, 1, 1.0315000000000001, -2.6499999999999999, 345, 1, 1.0600000000000001, 0.93999999999999995],
    [17, 1, 561, 220, 0, 0, 1, 1.0649, -13.1, 115, 1, 1.0600000000000001, 0.93999999999999995],
    [19, 1, 0, 0, 0, 0, 1, 0.98199999999999998, 1.0800000000000001, 230, 1, 1.0600000000000001, 0.93999999999999995],
    [20, 2, 605, 120, 0, 0, 1, 1.0009999999999999, -2.46, 115, 1, 1.0600000000000001, 0.93999999999999995],
    [21, 1, 77, 1, 0, 0, 1, 0.97519999999999996, 1.6200000000000001, 230, 1, 1.0600000000000001, 0.93999999999999995],
    [22, 1, 81, 23, 0, 0, 1, 0.99629999999999996, -1.97, 115, 1, 1.0600000000000001, 0.93999999999999995],
    [23, 1, 21, 7, 0, 0, 1, 1.0501, 3.9399999999999999, 115, 1, 1.0600000000000001, 0.93999999999999995],
    [24, 1, 0, 0, 0, 0, 1, 1.0057, 6.0199999999999996, 230, 1, 1.0600000000000001, 0.93999999999999995],
    [25, 1, 45, 12, 0, 0, 1, 1.0234000000000001, 1.4399999999999999, 115, 1, 1.0600000000000001, 0.93999999999999995],
    [26, 1, 28, 9, 0, 0, 1, 0.99860000000000004, -1.73, 115, 1, 1.0600000000000001, 0.93999999999999995],
    [27, 1, 69, 13, 0, 0, 1, 0.97499999999999998, -4.9000000000000004, 115, 1, 1.0600000000000001, 0.93999999999999995],
    [33, 1, 55, 6, 0, 0, 1, 1.0244, -12.02, 115, 1, 1.0600000000000001, 0.93999999999999995],
    [34, 1, 0, 0, 0, 0, 1, 1.0414000000000001, -7.9400000000000004, 345, 1, 1.0600000000000001, 0.93999999999999995],
    [35, 1, 0, 0, 0, 0, 1, 0.97570000000000001, -25.719999999999999, 115, 1, 1.0600000000000001, 0.93999999999999995],
    [36, 1, 0, 0, 0, 0, 1, 1.0011000000000001, -22.59, 230, 1, 1.0600000000000001, 0.93999999999999995],
    [37, 1, 85, 32, 0, 0, 1, 1.0201, -11.23, 115, 1, 1.0600000000000001, 0.93999999999999995],
    [38, 1, 155, 18, 0, 0, 1, 1.0202, -12.56, 115, 1, 1.0600000000000001, 0.93999999999999995],
    [39, 1, 0, 0, 0, 0, 1, 1.0535000000000001, -5.8099999999999996, 345, 1, 1.0600000000000001, 0.93999999999999995],
    [40, 1, 46, -21, 0, 0, 1, 1.0216000000000001, -12.779999999999999, 115, 1, 1.0600000000000001, 0.93999999999999995],
    [41, 1, 86, 0, 0, 0, 1, 1.0291999999999999, -10.449999999999999, 115, 1, 1.0600000000000001, 0.93999999999999995],
    [42, 1, 0, 0, 0, 0, 1, 1.0448, -7.4400000000000004, 345, 1, 1.0600000000000001, 0.93999999999999995],
    [43, 1, 39, 9, 0, 0, 1, 1.0005999999999999, -16.789999999999999, 115, 1, 1.0600000000000001, 0.93999999999999995],
    [44, 1, 195, 29, 0, 0, 1, 1.0085999999999999, -17.469999999999999, 115, 1, 1.0600000000000001, 0.93999999999999995],
    [45, 1, 0, 0, 0, 0, 1, 1.0215000000000001, -14.74, 230, 1, 1.0600000000000001, 0.93999999999999995],
    [46, 1, 0, 0, 0, 0, 1, 1.0344, -11.75, 345, 1, 1.0600000000000001, 0.93999999999999995],
    [47, 1, 58, 11.800000000000001, 0, 0, 1, 0.97770000000000001, -23.170000000000002, 115, 1, 1.0600000000000001, 0.93999999999999995],
    [48, 1, 41, 19, 0, 0, 1, 1.0019, -16.09, 115, 1, 1.0600000000000001, 0.93999999999999995],
    [49, 1, 92, 26, 0, 0, 1, 1.0475000000000001, -2.9500000000000002, 115, 1, 1.0600000000000001, 0.93999999999999995],
    [51, 1, -5, 5, 0, 0, 1, 1.0253000000000001, -8.1500000000000004, 115, 1, 1.0600000000000001, 0.93999999999999995],
    [52, 1, 61, 28, 0, 0, 1, 0.99790000000000001, -11.859999999999999, 115, 1, 1.0600000000000001, 0.93999999999999995],
    [53, 1, 69, 3, 0, 0, 1, 0.99590000000000001, -17.600000000000001, 115, 1, 1.0600000000000001, 0.93999999999999995],
    [54, 1, 10, 1, 0, 0, 1, 1.0049999999999999, -16.25, 115, 1, 1.0600000000000001, 0.93999999999999995],
    [55, 1, 22, 10, 0, 0, 1, 1.0149999999999999, -12.210000000000001, 115, 1, 1.0600000000000001, 0.93999999999999995],
    [57, 1, 98, 20, 0, 0, 1, 1.0335000000000001, -8, 115, 1, 1.0600000000000001, 0.93999999999999995],
    [58, 1, 14, 1, 0, 0, 1, 0.99180000000000001, -5.9900000000000002, 115, 1, 1.0600000000000001, 0.93999999999999995],
    [59, 1, 218, 106, 0, 0, 1, 0.97889999999999999, -5.29, 115, 1, 1.0600000000000001, 0.93999999999999995],
    [60, 1, 0, 0, 0, 0, 1, 1.0246, -9.5600000000000005, 230, 1, 1.0600000000000001, 0.93999999999999995],
    [61, 1, 227, 110, 0, 0, 1, 0.99060000000000004, -3.4700000000000002, 115, 1, 1.0600000000000001, 0.93999999999999995],
    [62, 1, 0, 0, 0, 0, 1, 1.016, -1.1000000000000001, 230, 1, 1.0600000000000001, 0.93999999999999995],
    [63, 2, 70, 30, 0, 0, 1, 0.95830000000000004, -17.620000000000001, 115, 1, 1.0600000000000001, 0.93999999999999995],
    [64, 1, 0, 0, 0, 0, 1, 0.94799999999999995, -12.970000000000001, 230, 1, 1.0600000000000001, 0.93999999999999995],
    [69, 1, 0, 0, 0, 0, 1, 0.96299999999999997, -25.66, 115, 1, 1.0600000000000001, 0.93999999999999995],
    [70, 1, 56, 20, 0, 0, 1, 0.95130000000000003, -35.159999999999997, 115, 1, 1.0600000000000001, 0.93999999999999995],
    [71, 1, 116, 38, 0, 0, 1, 0.97929999999999995, -29.879999999999999, 115, 1, 1.0600000000000001, 0.93999999999999995],
    [72, 1, 57, 19, 0, 0, 1, 0.96960000000000002, -27.48, 115, 1, 1.0600000000000001, 0.93999999999999995],
    [73, 1, 224, 71, 0, 0, 1, 0.97750000000000004, -25.77, 115, 1, 1.0600000000000001, 0.93999999999999995],
    [74, 1, 0, 0, 0, 0, 1, 0.99639999999999995, -22, 230, 1, 1.0600000000000001, 0.93999999999999995],
    [76, 2, 208, 107, 0, 0, 1, 0.96319999999999995, -26.539999999999999, 115, 1, 1.0600000000000001, 0.93999999999999995],
    [77, 1, 74, 28, 0, 0, 1, 0.98370000000000002, -24.940000000000001, 115, 1, 1.0600000000000001, 0.93999999999999995],
    [78, 1, 0, 0, 0, 0, 1, 0.98999999999999999, -24.050000000000001, 115, 1, 1.0600000000000001, 0.93999999999999995],
    [79, 1, 48, 14, 0, 0, 1, 0.98199999999999998, -24.969999999999999, 115, 1, 1.0600000000000001, 0.93999999999999995],
    [80, 1, 28, 7, 0, 0, 1, 0.98719999999999997, -24.969999999999999, 115, 1, 1.0600000000000001, 0.93999999999999995],
    [81, 1, 0, 0, 0, 0, 1, 1.034, -18.890000000000001, 345, 1, 1.0600000000000001, 0.93999999999999995],
    [84, 2, 37, 13, 0, 0, 1, 1.0249999999999999, -17.16, 115, 1, 1.0600000000000001, 0.93999999999999995],
    [85, 1, 0, 0, 0, 0, 1, 0.98719999999999997, -17.68, 230, 1, 1.0600000000000001, 0.93999999999999995],
    [86, 1, 0, 0, 0, 0, 1, 0.9909, -14.19, 230, 1, 1.0600000000000001, 0.93999999999999995],
    [87, 1, 0, 0, 0, 0, 1, 0.99209999999999998, -7.7699999999999996, 230, 1, 1.0600000000000001, 0.93999999999999995],
    [88, 1, 0, 0, 0, 0, 1, 1.0150999999999999, -20.960000000000001, 230, 1, 1.0600000000000001, 0.93999999999999995],
    [89, 1, 44.200000000000003, 0, 0, 0, 1, 1.0317000000000001, -11.130000000000001, 115, 1, 1.0600000000000001, 0.93999999999999995],
    [90, 1, 66, 0, 0, 0, 1, 1.0271999999999999, -11.23, 115, 1, 1.0600000000000001, 0.93999999999999995],
    [91, 2, 17.399999999999999, 0, 0, 0, 1, 1.052, -9.4000000000000004, 115, 1, 1.0600000000000001, 0.93999999999999995],
    [92, 2, 15.800000000000001, 0, 0, 0, 1, 1.052, -6.2000000000000002, 115, 1, 1.0600000000000001, 0.93999999999999995],
    [94, 1, 60.299999999999997, 0, 0, 0, 1, 0.99299999999999999, -9.4199999999999999, 115, 1, 1.0600000000000001, 0.93999999999999995],
    [97, 1, 39.899999999999999, 0, 0, 0, 1, 1.0183, -13.24, 115, 1, 1.0600000000000001, 0.93999999999999995],
    [98, 2, 66.700000000000003, 0, 0, 0, 1, 1, -14.6, 115, 1, 1.0600000000000001, 0.93999999999999995],
    [99, 1, 83.5, 0, 0, 0, 1, 0.98939999999999995, -20.27, 115, 1, 1.0600000000000001, 0.93999999999999995],
    [100, 1, 0, 0, 0, 0, 1, 1.006, -14.449999999999999, 115, 1, 1.0600000000000001, 0.93999999999999995],
    [102, 1, 77.799999999999997, 0, 0, 0, 1, 1.0007999999999999, -15.23, 115, 1, 1.0600000000000001, 0.93999999999999995],
    [103, 1, 32, 0, 0, 0, 1, 1.0287999999999999, -12.06, 115, 1, 1.0600000000000001, 0.93999999999999995],
    [104, 1, 8.5999999999999996, 0, 0, 0, 1, 0.99580000000000002, -17.329999999999998, 115, 1, 1.0600000000000001, 0.93999999999999995],
    [105, 1, 49.600000000000001, 0, 0, 0, 1, 1.0223, -12.94, 115, 1, 1.0600000000000001, 0.93999999999999995],
    [107, 1, 4.5999999999999996, 0, 0, 0, 1, 1.0095000000000001, -16.030000000000001, 115, 1, 1.0600000000000001, 0.93999999999999995],
    [108, 2, 112.09999999999999, 0, 0, 0, 1, 0.98999999999999999, -20.260000000000002, 115, 1, 1.0600000000000001, 0.93999999999999995],
    [109, 1, 30.699999999999999, 0, 0, 0, 1, 0.97489999999999999, -26.059999999999999, 115, 1, 1.0600000000000001, 0.93999999999999995],
    [110, 1, 63, 0, 0, 0, 1, 0.97299999999999998, -24.719999999999999, 115, 1, 1.0600000000000001, 0.93999999999999995],
    [112, 1, 19.600000000000001, 0, 0, 0, 1, 0.97250000000000003, -28.690000000000001, 115, 1, 1.0600000000000001, 0.93999999999999995],
    [113, 1, 26.199999999999999, 0, 0, 0, 1, 0.96999999999999997, -25.379999999999999, 115, 1, 1.0600000000000001, 0.93999999999999995],
    [114, 1, 18.199999999999999, 0, 0, 0, 1, 0.97470000000000001, -28.59, 115, 1, 1.0600000000000001, 0.93999999999999995],
    [115, 1, 0, 0, 0, 0, 1, 0.96030000000000004, -13.57, 115, 2, 1.0600000000000001, 0.93999999999999995],
    [116, 1, 0, 0, 0, 0, 1, 1.0248999999999999, -12.69, 115, 2, 1.0600000000000001, 0.93999999999999995],
    [117, 1, 0, 0, 0, 325, 1, 0.93479999999999996, -4.7199999999999998, 115, 2, 1.0600000000000001, 0.93999999999999995],
    [118, 1, 14.1, 650, 0, 0, 1, 0.92979999999999996, -4.1200000000000001, 115, 2, 1.0600000000000001, 0.93999999999999995],
    [119, 2, 0, 0, 0, 0, 1, 1.0435000000000001, 5.1699999999999999, 115, 2, 1.0600000000000001, 0.93999999999999995],
    [120, 1, 777, 215, 0, 55, 1, 0.95840000000000003, -8.7699999999999996, 115, 2, 1.0600000000000001, 0.93999999999999995],
    [121, 1, 535, 55, 0, 0, 1, 0.98709999999999998, -12.640000000000001, 115, 2, 1.0600000000000001, 0.93999999999999995],
    [122, 1, 229.09999999999999, 11.800000000000001, 0, 0, 1, 0.9728, -14.359999999999999, 115, 2, 1.0600000000000001, 0.93999999999999995],
    [123, 1, 78, 1.3999999999999999, 0, 0, 1, 1.0005999999999999, -17.640000000000001, 115, 2, 1.0600000000000001, 0.93999999999999995],
    [124, 2, 276.39999999999998, 59.299999999999997, 0, 0, 1, 1.0233000000000001, -13.49, 115, 2, 1.0600000000000001, 0.93999999999999995],
    [125, 2, 514.79999999999995, 82.700000000000003, 0, 0, 1, 1.0103, -18.43, 115, 2, 1.0600000000000001, 0.93999999999999995],
    [126, 1, 57.899999999999999, 5.0999999999999996, 0, 0, 1, 0.99780000000000002, -12.859999999999999, 115, 2, 1.0600000000000001, 0.93999999999999995],
    [127, 1, 380.80000000000001, 37, 0, 0, 1, 1.0001, -10.52, 230, 2, 1.0600000000000001, 0.93999999999999995],
    [128, 1, 0, 0, 0, 0, 1, 1.0024, -4.7800000000000002, 230, 2, 1.0600000000000001, 0.93999999999999995],
    [129, 1, 0, 0, 0, 0, 1, 1.0027999999999999, -4.4000000000000004, 230, 2, 1.0600000000000001, 0.93999999999999995],
    [130, 1, 0, 0, 0, 0, 1, 1.0190999999999999, 5.5599999999999996, 230, 2, 1.0600000000000001, 0.93999999999999995],
    [131, 1, 0, 0, 0, 0, 1, 0.98609999999999998, 6.0599999999999996, 230, 2, 1.0600000000000001, 0.93999999999999995],
    [132, 1, 0, 0, 0, 0, 1, 1.0044999999999999, 3.04, 230, 2, 1.0600000000000001, 0.93999999999999995],
    [133, 1, 0, 0, 0, 0, 1, 1.002, -5.46, 230, 2, 1.0600000000000001, 0.93999999999999995],
    [134, 1, 0, 0, 0, 0, 1, 1.022, -8.0399999999999991, 230, 2, 1.0600000000000001, 0.93999999999999995],
    [135, 1, 169.19999999999999, 41.600000000000001, 0, 0, 1, 1.0193000000000001, -6.7599999999999998, 230, 2, 1.0600000000000001, 0.93999999999999995],
    [136, 1, 55.200000000000003, 18.199999999999999, 0, 0, 1, 1.0476000000000001, 1.54, 230, 2, 1.0600000000000001, 0.93999999999999995],
    [137, 1, 273.60000000000002, 99.799999999999997, 0, 0, 1, 1.0470999999999999, -1.45, 230, 2, 1.0600000000000001, 0.93999999999999995],
    [138, 2, 1019.2, 135.19999999999999, 0, 0, 1, 1.0549999999999999, -6.3499999999999996, 230, 2, 1.0600000000000001, 0.93999999999999995],
    [139, 1, 595, 83.299999999999997, 0, 0, 1, 1.0117, -3.5699999999999998, 115, 2, 1.0600000000000001, 0.93999999999999995],
    [140, 1, 387.69999999999999, 114.7, 0, 0, 1, 1.0429999999999999, -3.4399999999999999, 230, 2, 1.0600000000000001, 0.93999999999999995],
    [141, 2, 145, 58, 0, 0, 1, 1.0509999999999999, 0.050000000000000003, 230, 2, 1.0600000000000001, 0.93999999999999995],
    [142, 1, 56.5, 24.5, 0, 0, 1, 1.0155000000000001, -2.77, 230, 2, 1.0600000000000001, 0.93999999999999995],
    [143, 2, 89.5, 35.5, 0, 0, 1, 1.0435000000000001, 4.0300000000000002, 230, 2, 1.0600000000000001, 0.93999999999999995],
    [144, 1, 0, 0, 0, 0, 1, 1.016, -0.69999999999999996, 230, 2, 1.0600000000000001, 0.93999999999999995],
    [145, 1, 24, 14, 0, 0, 1, 1.0081, -0.16, 230, 2, 1.0600000000000001, 0.93999999999999995],
    [146, 2, 0, 0, 0, 0, 1, 1.0528, 4.3200000000000003, 230, 2, 1.0600000000000001, 0.93999999999999995],
    [147, 2, 0, 0, 0, 0, 1, 1.0528, 8.3599999999999994, 230, 2, 1.0600000000000001, 0.93999999999999995],
    [148, 1, 63, 25, 0, 0, 1, 1.0577000000000001, 0.28000000000000003, 230, 2, 1.0600000000000001, 0.93999999999999995],
    [149, 2, 0, 0, 0, 0, 1, 1.0734999999999999, 5.2300000000000004, 230, 2, 1.0600000000000001, 0.93999999999999995],
    [150, 1, 0, 0, 0, 0, 1, 0.9869, 6.3399999999999999, 230, 2, 1.0600000000000001, 0.93999999999999995],
    [151, 1, 0, 0, 0, 0, 1, 1.0047999999999999, 4.1299999999999999, 230, 2, 1.0600000000000001, 0.93999999999999995],
    [152, 2, 17, 9, 0, 0, 1, 1.0535000000000001, 9.2400000000000002, 230, 2, 1.0600000000000001, 0.93999999999999995],
    [153, 2, 0, 0, 0, 0, 1, 1.0435000000000001, 10.460000000000001, 230, 2, 1.0600000000000001, 0.93999999999999995],
    [154, 1, 70, 5, 0, 34.5, 1, 0.96630000000000005, -1.8, 115, 2, 1.0600000000000001, 0.93999999999999995],
    [155, 1, 200, 50, 0, 0, 1, 1.0177, 6.75, 230, 2, 1.0600000000000001, 0.93999999999999995],
    [156, 2, 75, 50, 0, 0, 1, 0.96299999999999997, 5.1500000000000004, 115, 2, 1.0600000000000001, 0.93999999999999995],
    [157, 1, 123.5, -24.300000000000001, 0, 0, 1, 0.98450000000000004, -11.93, 230, 2, 1.0600000000000001, 0.93999999999999995],
    [158, 1, 0, 0, 0, 0, 1, 0.99870000000000003, -11.4, 230, 2, 1.0600000000000001, 0.93999999999999995],
    [159, 1, 33, 16.5, 0, 0, 1, 0.98670000000000002, -9.8200000000000003, 230, 2, 1.0600000000000001, 0.93999999999999995],
    [160, 1, 0, 0, 0, 0, 1, 0.99980000000000002, -12.550000000000001, 230, 2, 1.0600000000000001, 0.93999999999999995],
    [161, 1, 35, 15, 0, 0, 1, 1.036, 8.8499999999999996, 230, 2, 1.0600000000000001, 0.93999999999999995],
    [162, 1, 85, 24, 0, 0, 1, 0.99180000000000001, 18.5, 230, 2, 1.0600000000000001, 0.93999999999999995],
    [163, 1, 0, 0.40000000000000002, 0, 0, 1, 1.0409999999999999, 2.9100000000000001, 230, 2, 1.0600000000000001, 0.93999999999999995],
    [164, 1, 0, 0, 0, -212, 1, 0.9839, 9.6600000000000001, 230, 2, 1.0600000000000001, 0.93999999999999995],
    [165, 1, 0, 0, 0, 0, 1, 1.0002, 26.309999999999999, 230, 2, 1.0600000000000001, 0.93999999999999995],
    [166, 1, 0, 0, 0, -103, 1, 0.99729999999999996, 30.219999999999999, 230, 2, 1.0600000000000001, 0.93999999999999995],
    [167, 1, 299.89999999999998, 95.700000000000003, 0, 0, 1, 0.97150000000000003, -6.9100000000000001, 230, 2, 1.0600000000000001, 0.93999999999999995],
    [168, 1, 0, 0, 0, 0, 1, 1.0024, -4.7999999999999998, 230, 2, 1.0600000000000001, 0.93999999999999995],
    [169, 1, 0, 0, 0, 0, 1, 0.9879, -6.6799999999999997, 230, 2, 1.0600000000000001, 0.93999999999999995],
    [170, 2, 481.80000000000001, 205, 0, 0, 1, 0.92900000000000005, 0.089999999999999997, 115, 2, 1.0600000000000001, 0.93999999999999995],
    [171, 2, 763.60000000000002, 291.10000000000002, 0, 0, 1, 0.9829, -9.9399999999999995, 115, 2, 1.0600000000000001, 0.93999999999999995],
    [172, 1, 26.5, 0, 0, 0, 1, 1.0244, -6.2199999999999998, 115, 2, 1.0600000000000001, 0.93999999999999995],
    [173, 1, 163.5, 43, 0, 53, 1, 0.98370000000000002, -12.75, 115, 2, 1.0600000000000001, 0.93999999999999995],
    [174, 1, 0, 0, 0, 0, 1, 1.0622, -2.6899999999999999, 115, 2, 1.0600000000000001, 0.93999999999999995],
    [175, 1, 176, 83, 0, 0, 1, 0.97299999999999998, -7.21, 115, 2, 1.0600000000000001, 0.93999999999999995],
    [176, 2, 5, 4, 0, 0, 1, 1.0522, 4.6699999999999999, 115, 2, 1.0600000000000001, 0.93999999999999995],
    [177, 2, 28, 12, 0, 0, 1, 1.0077, 0.62, 115, 2, 1.0600000000000001, 0.93999999999999995],
    [178, 1, 427.39999999999998, 173.59999999999999, 0, 0, 1, 0.93969999999999998, -6.5599999999999996, 115, 2, 1.0600000000000001, 0.93999999999999995],
    [179, 1, 74, 29, 0, 45, 1, 0.96989999999999998, -9.3699999999999992, 115, 2, 1.0600000000000001, 0.93999999999999995],
    [180, 1, 69.5, 49.299999999999997, 0, 0, 1, 0.97929999999999995, -3.0899999999999999, 115, 2, 1.0600000000000001, 0.93999999999999995],
    [181, 1, 73.400000000000006, 0, 0, 0, 1, 1.0518000000000001, -1.3300000000000001, 230, 2, 1.0600000000000001, 0.93999999999999995],
    [182, 1, 240.69999999999999, 89, 0, 0, 1, 1.0447, -4.1900000000000004, 230, 2, 1.0600000000000001, 0.93999999999999995],
    [183, 1, 40, 4, 0, 0, 1, 0.97170000000000001, 7.1200000000000001, 115, 2, 1.0600000000000001, 0.93999999999999995],
    [184, 1, 136.80000000000001, 16.600000000000001, 0, 0, 1, 1.0386, -6.8499999999999996, 230, 2, 1.0600000000000001, 0.93999999999999995],
    [185, 2, 0, 0, 0, 0, 1, 1.0522, -4.3300000000000001, 230, 2, 1.0600000000000001, 0.93999999999999995],
    [186, 2, 59.799999999999997, 24.300000000000001, 0, 0, 1, 1.0649999999999999, 2.1699999999999999, 230, 2, 1.0600000000000001, 0.93999999999999995],
    [187, 2, 59.799999999999997, 24.300000000000001, 0, 0, 1, 1.0649999999999999, 1.3999999999999999, 230, 2, 1.0600000000000001, 0.93999999999999995],
    [188, 1, 182.59999999999999, 43.600000000000001, 0, 0, 1, 1.0532999999999999, -0.71999999999999997, 230, 2, 1.0600000000000001, 0.93999999999999995],
    [189, 1, 7, 2, 0, 0, 1, 0.99750000000000005, -25.84, 66, 3, 1.0600000000000001, 0.93999999999999995],
    [190, 2, 0, 0, 0, -150, 1, 1.0550999999999999, -20.620000000000001, 345, 3, 1.0600000000000001, 0.93999999999999995],
    [191, 2, 489, 53, 0, 0, 1, 1.0435000000000001, 12.25, 230, 3, 1.0600000000000001, 0.93999999999999995],
    [192, 1, 800, 72, 0, 0, 1, 0.93740000000000001, -11.18, 230, 3, 1.0600000000000001, 0.93999999999999995],
    [193, 1, 0, 0, 0, 0, 1, 0.98970000000000002, -26.09, 66, 3, 1.0600000000000001, 0.93999999999999995],
    [194, 1, 0, 0, 0, 0, 1, 1.0488999999999999, -19.210000000000001, 345, 3, 1.0600000000000001, 0.93999999999999995],
    [195, 1, 0, 0, 0, 0, 1, 1.0357000000000001, -20.789999999999999, 345, 3, 1.0600000000000001, 0.93999999999999995],
    [196, 1, 10, 3, 0, 0, 1, 0.96950000000000003, -25.32, 115, 3, 1.0600000000000001, 0.93999999999999995],
    [197, 1, 43, 14, 0, 0, 1, 0.99070000000000003, -23.719999999999999, 115, 3, 1.0600000000000001, 0.93999999999999995],
    [198, 2, 64, 21, 0, 0, 1, 1.0149999999999999, -20.579999999999998, 115, 3, 1.0600000000000001, 0.93999999999999995],
    [199, 1, 35, 12, 0, 0, 1, 0.95279999999999998, -26.050000000000001, 115, 3, 1.0600000000000001, 0.93999999999999995],
    [200, 1, 27, 12, 0, 0, 1, 0.95499999999999996, -25.93, 115, 3, 1.0600000000000001, 0.93999999999999995],
    [201, 1, 41, 14, 0, 0, 1, 0.96919999999999995, -27.489999999999998, 66, 1, 1.0600000000000001, 0.93999999999999995],
    [202, 1, 38, 13, 0, 0, 1, 0.99080000000000001, -25.329999999999998, 66, 3, 1.0600000000000001, 0.93999999999999995],
    [203, 1, 42, 14, 0, 0, 1, 1.0033000000000001, -22.350000000000001, 115, 3, 1.0600000000000001, 0.93999999999999995],
    [204, 1, 72, 24, 0, 0, 1, 0.9718, -25.699999999999999, 66, 3, 1.0600000000000001, 0.93999999999999995],
    [205, 1, 0, -5, 0, 0, 1, 0.98380000000000001, -26.07, 66, 3, 1.0600000000000001, 0.93999999999999995],
    [206, 1, 12, 2, 0, 0, 1, 0.99919999999999998, -27.41, 66, 3, 1.0600000000000001, 0.93999999999999995],
    [207, 1, -21, -14.199999999999999, 0, 0, 1, 1.0137, -27.440000000000001, 66, 1, 1.0600000000000001, 0.93999999999999995],
    [208, 1, 7, 2, 0, 0, 1, 0.9929, -26.280000000000001, 66, 3, 1.0600000000000001, 0.93999999999999995],
    [209, 1, 38, 13, 0, 0, 1, 0.99990000000000001, -25.66, 66, 3, 1.0600000000000001, 0.93999999999999995],
    [210, 1, 0, 0, 0, 0, 1, 0.9788, -24.219999999999999, 115, 3, 1.0600000000000001, 0.93999999999999995],
    [211, 1, 96, 7, 0, 0, 1, 1.0017, -23.309999999999999, 115, 3, 1.0600000000000001, 0.93999999999999995],
    [212, 1, 0, 0, 0, 0, 1, 1.0132000000000001, -22.510000000000002, 138, 3, 1.0600000000000001, 0.93999999999999995],
    [213, 2, 0, 0, 0, 0, 1, 1.01, -11.67, 16.5, 3, 1.0600000000000001, 0.93999999999999995],
    [214, 1, 22, 16, 0, 0, 1, 0.9919, -17.530000000000001, 138, 3, 1.0600000000000001, 0.93999999999999995],
    [215, 1, 47, 26, 0, 0, 1, 0.98660000000000003, -20.23, 138, 3, 1.0600000000000001, 0.93999999999999995],
    [216, 1, 176, 105, 0, 0, 1, 0.97509999999999997, -22.530000000000001, 138, 3, 1.0600000000000001, 0.93999999999999995],
    [217, 1, 100, 75, 0, 0, 1, 1.0215000000000001, -22.199999999999999, 138, 3, 1.0600000000000001, 0.93999999999999995],
    [218, 1, 131, 96, 0, 0, 1, 1.0075000000000001, -22.629999999999999, 138, 3, 1.0600000000000001, 0.93999999999999995],
    [219, 1, 0, 0, 0, 0, 1, 1.0553999999999999, -21.149999999999999, 345, 3, 1.0600000000000001, 0.93999999999999995],
    [220, 2, 285, 100, 0, 0, 1, 1.008, -21.73, 138, 3, 1.0600000000000001, 0.93999999999999995],
    [221, 2, 171, 70, 0, 0, 1, 1, -22.489999999999998, 138, 3, 1.0600000000000001, 0.93999999999999995],
...
    ])

    ## generator data
    # bus, Pg, Qg, Qmax, Qmin, Vg, mBase, status, Pmax, Pmin, Pc1, Pc2,
    # Qc1min, Qc1max, Qc2min, Qc2max, ramp_agc, ramp_10, ramp_30, ramp_q, apf
    ppc["gen"] = array([
    [8, 0, 0, 10, -10, 1.0153000000000001, 100, 1, 100, 0, 0, 0, 0, 0, 0, 0, 0, 0, 0, 0, 0],
    [10, 0, 0, 20, -20, 1.0205, 100, 1, 100, 0, 0, 0, 0, 0, 0, 0, 0, 0, 0, 0, 0],
    [20, 0, 0, 20, -20, 1.0009999999999999, 100, 1, 100, 0, 0, 0, 0, 0, 0, 0, 0, 0, 0, 0, 0],
    [63, 0, 0, 25, -25, 0.95830000000000004, 100, 1, 100, 0, 0, 0, 0, 0, 0, 0, 0, 0, 0, 0, 0],
    [76, 0, 0, 35, 12, 0.96319999999999995, 100, 1, 100, 0, 0, 0, 0, 0, 0, 0, 0, 0, 0, 0, 0],
    [84, 375, 0, 240, -240, 1.0249999999999999, 100, 1, 475, 0, 0, 0, 0, 0, 0, 0, 0, 0, 0, 0, 0],
    [91, 155, 0, 96, -11, 1.052, 100, 1, 255, 0, 0, 0, 0, 0, 0, 0, 0, 0, 0, 0, 0],
    [92, 290, 0, 153, -153, 1.052, 100, 1, 390, 0, 0, 0, 0, 0, 0, 0, 0, 0, 0, 0, 0],
    [98, 68, 0, 56, -30, 1, 100, 1, 168, 0, 0, 0, 0, 0, 0, 0, 0, 0, 0, 0, 0],
    [108, 117, 0, 77, -24, 0.98999999999999999, 100, 1, 217, 0, 0, 0, 0, 0, 0, 0, 0, 0, 0, 0, 0],
    [119, 1930, 0, 1500, -500, 1.0435000000000001, 100, 1, 2030, 0, 0, 0, 0, 0, 0, 0, 0, 0, 0, 0, 0],
    [124, 240, 0, 120, -60, 1.0233000000000001, 100, 1, 340, 0, 0, 0, 0, 0, 0, 0, 0, 0, 0, 0, 0],
    [125, 0, 0, 200, -25, 1.0103, 100, 1, 100, 0, 0, 0, 0, 0, 0, 0, 0, 0, 0, 0, 0],
    [138, 0, 0, 350, -125, 1.0549999999999999, 100, 1, 100, 0, 0, 0, 0, 0, 0, 0, 0, 0, 0, 0, 0],
    [141, 281, 0, 75, -50, 1.0509999999999999, 100, 1, 381, 0, 0, 0, 0, 0, 0, 0, 0, 0, 0, 0, 0],
    [143, 696, 0, 300, -100, 1.0435000000000001, 100, 1, 796, 0, 0, 0, 0, 0, 0, 0, 0, 0, 0, 0, 0],
    [146, 84, 0, 35, -15, 1.0528, 100, 1, 184, 0, 0, 0, 0, 0, 0, 0, 0, 0, 0, 0, 0],
    [147, 217, 0, 100, -50, 1.0528, 100, 1, 317, 0, 0, 0, 0, 0, 0, 0, 0, 0, 0, 0, 0],
    [149, 103, 0, 50, -25, 1.0599999999, 100, 1, 203, 0, 0, 0, 0, 0, 0, 0, 0, 0, 0, 0, 0],
    [152, 372, 0, 175, -50, 1.0535000000000001, 100, 1, 472, 0, 0, 0, 0, 0, 0, 0, 0, 0, 0, 0, 0],
    [153, 216, 0, 90, -50, 1.0435000000000001, 100, 1, 316, 0, 0, 0, 0, 0, 0, 0, 0, 0, 0, 0, 0],
    [156, 0, 0, 15, -10, 0.96299999999999997, 100, 1, 100, 0, 0, 0, 0, 0, 0, 0, 0, 0, 0, 0, 0],
    [170, 205, 0, 90, -40, 0.94000000009999995, 100, 1, 305, 0, 0, 0, 0, 0, 0, 0, 0, 0, 0, 0, 0],
    [171, 0, 0, 150, -50, 0.9829, 100, 1, 100, 0, 0, 0, 0, 0, 0, 0, 0, 0, 0, 0, 0],
    [176, 228, 0, 90, -45, 1.0522, 100, 1, 328, 0, 0, 0, 0, 0, 0, 0, 0, 0, 0, 0, 0],
    [177, 84, 0, 35, -15, 1.0077, 100, 1, 184, 0, 0, 0, 0, 0, 0, 0, 0, 0, 0, 0, 0],
    [185, 200, 0, 80, -50, 1.0522, 100, 1, 300, 0, 0, 0, 0, 0, 0, 0, 0, 0, 0, 0, 0],
    [186, 1200, 0, 400, -100, 1.0599999999, 100, 1, 1300, 0, 0, 0, 0, 0, 0, 0, 0, 0, 0, 0, 0],
    [187, 1200, 0, 400, -100, 1.0599999999, 100, 1, 1300, 0, 0, 0, 0, 0, 0, 0, 0, 0, 0, 0, 0],
    [190, 475, 0, 300, -300, 1.0550999999999999, 100, 1, 575, 0, 0, 0, 0, 0, 0, 0, 0, 0, 0, 0, 0],
    [191, 1973, 0, 1000, -1000, 1.0435000000000001, 100, 1, 2073, 0, 0, 0, 0, 0, 0, 0, 0, 0, 0, 0, 0],
    [198, 424, 0, 260, -260, 1.0149999999999999, 100, 1, 524, 0, 0, 0, 0, 0, 0, 0, 0, 0, 0, 0, 0],
    [213, 272, 0, 150, -150, 1.01, 100, 1, 372, 0, 0, 0, 0, 0, 0, 0, 0, 0, 0, 0, 0],
    [220, 100, 0, 60, -60, 1.008, 100, 1, 200, 0, 0, 0, 0, 0, 0, 0, 0, 0, 0, 0, 0],
    [221, 450, 0, 320, -320, 1, 100, 1, 550, 0, 0, 0, 0, 0, 0, 0, 0, 0, 0, 0, 0],
    [222, 250, 0, 300, -300, 1.05, 100, 1, 350, 0, 0, 0, 0, 0, 0, 0, 0, 0, 0, 0, 0],
    [227, 303, 0, 300, -300, 1, 100, 1, 403, 0, 0, 0, 0, 0, 0, 0, 0, 0, 0, 0, 0],
    [230, 345, 0, 250, -250, 1.04, 100, 1, 445, 0, 0, 0, 0, 0, 0, 0, 0, 0, 0, 0, 0],
    [233, 300, 0, 500, -500, 1, 100, 1, 400, 0, 0, 0, 0, 0, 0, 0, 0, 0, 0, 0, 0],
    [236, 600, 0, 300, -300, 1.0165, 100, 1, 700, 0, 0, 0, 0, 0, 0, 0, 0, 0, 0, 0, 0],
    [238, 250, 0, 200, -200, 1.01, 100, 1, 350, 0, 0, 0, 0, 0, 0, 0, 0, 0, 0, 0, 0],
    [239, 550, 0, 400, -400, 1, 100, 1, 650, 0, 0, 0, 0, 0, 0, 0, 0, 0, 0, 0, 0],
    [241, 575.42999999999995, 0, 600, -600, 1.05, 100, 1, 675.42999999999995, 0, 0, 0, 0, 0, 0, 0, 0, 0, 0, 0, 0],
    [242, 170, 0, 100, 40, 0.99299999999999999, 100, 1, 270, 0, 0, 0, 0, 0, 0, 0, 0, 0, 0, 0, 0],
    [243, 84, 0, 80, 40, 1.01, 100, 1, 184, 0, 0, 0, 0, 0, 0, 0, 0, 0, 0, 0, 0],
    [7001, 467, 0, 210, -210, 1.0507, 100, 1, 567, 0, 0, 0, 0, 0, 0, 0, 0, 0, 0, 0, 0],
    [7002, 623, 0, 280, -280, 1.0507, 100, 1, 723, 0, 0, 0, 0, 0, 0, 0, 0, 0, 0, 0, 0],
    [7003, 1210, 0, 420, -420, 1.0323, 100, 1, 1310, 0, 0, 0, 0, 0, 0, 0, 0, 0, 0, 0, 0],
    [7011, 234, 0, 100, -100, 1.0145, 100, 1, 334, 0, 0, 0, 0, 0, 0, 0, 0, 0, 0, 0, 0],
    [7012, 372, 0, 224, -224, 1.0507, 100, 1, 472, 0, 0, 0, 0, 0, 0, 0, 0, 0, 0, 0, 0],
    [7017, 330, 0, 350, 0, 1.0507, 100, 1, 430, 0, 0, 0, 0, 0, 0, 0, 0, 0, 0, 0, 0],
    [7023, 185, 0, 120, 0, 1.0507, 100, 1, 285, 0, 0, 0, 0, 0, 0, 0, 0, 0, 0, 0, 0],
    [7024, 410, 0, 224, -224, 1.0289999999999999, 100, 1, 510, 0, 0, 0, 0, 0, 0, 0, 0, 0, 0, 0, 0],
    [7039, 500, 0, 200, -200, 1.05, 100, 1, 600, 0, 0, 0, 0, 0, 0, 0, 0, 0, 0, 0, 0],
    [7044, 37, 0, 42, 0, 1.0145, 100, 1, 137, 0, 0, 0, 0, 0, 0, 0, 0, 0, 0, 0, 0],
    [7049, 0, 0, 10, 0, 1.0507, 100, 1, 2399.0050000000001, 0, 0, 0, 0, 0, 0, 0, 0, 0, 0, 0, 0],
    [7055, 45, 0, 25, 0, 0.99670000000000003, 100, 1, 145, 0, 0, 0, 0, 0, 0, 0, 0, 0, 0, 0, 0],
    [7057, 165, 0, 90, -90, 1.0212000000000001, 100, 1, 265, 0, 0, 0, 0, 0, 0, 0, 0, 0, 0, 0, 0],
    [7061, 400, 0, 150, -150, 1.0145, 100, 1, 500, 0, 0, 0, 0, 0, 0, 0, 0, 0, 0, 0, 0],
    [7062, 400, 0, 150, 0, 1.0017, 100, 1, 500, 0, 0, 0, 0, 0, 0, 0, 0, 0, 0, 0, 0],
    [7071, 116, 0, 87, 0, 0.98929999999999996, 100, 1, 216, 0, 0, 0, 0, 0, 0, 0, 0, 0, 0, 0, 0],
    [7130, 1292, 0, 600, -100, 1.0507, 100, 1, 1392, 0, 0, 0, 0, 0, 0, 0, 0, 0, 0, 0, 0],
    [7139, 700, 0, 325, -125, 1.0507, 100, 1, 800, 0, 0, 0, 0, 0, 0, 0, 0, 0, 0, 0, 0],
    [7166, 553, 0, 300, -200, 1.0145, 100, 1, 653, 0, 0, 0, 0, 0, 0, 0, 0, 0, 0, 0, 0],
    [9002, 0, 0, 2, -2, 0.99450000000000005, 100, 1, 100, 0, 0, 0, 0, 0, 0, 0, 0, 0, 0, 0, 0],
    [9051, 0, 0, 17.350000000000001, -17.350000000000001, 1, 100, 1, 100, 0, 0, 0, 0, 0, 0, 0, 0, 0, 0, 0, 0],
    [9053, 0, 0, 12.83, -12.800000000000001, 1, 100, 1, 100, 0, 0, 0, 0, 0, 0, 0, 0, 0, 0, 0, 0],
    [9054, 50, 0, 38, -38, 1, 100, 1, 150, 0, 0, 0, 0, 0, 0, 0, 0, 0, 0, 0, 0],
    [9055, 8, 0, 6, -6, 1, 100, 1, 108, 0, 0, 0, 0, 0, 0, 0, 0, 0, 0, 0, 0]
    ])

    ## branch data
    # fbus, tbus, r, x, b, rateA, rateB, rateC, ratio, angle, status, angmin, angmax
    ppc["branch"] = array([
    [37, 9001, 6.0000000000000002e-05, 0.00046000000000000001, 0, 0, 0, 75, 1.0082, 0, 1, -360, 360],
    [9001, 9005, 0.00080000000000000004, 0.00348, 0, 0, 0, 0, 0, 0, 1, -360, 360],
    [9001, 9006, 0.024389999999999998, 0.43681999999999999, 0, 0, 0, 0, 0.96679999999999999, 0, 1, -360, 360],
    [9001, 9012, 0.036240000000000001, 0.64898, 0, 0, 0, 0, 0.97960000000000003, 0, 1, -360, 360],
    [9005, 9051, 0.015779999999999999, 0.37486000000000003, 0, 0, 0, 0, 1.0435000000000001, 0, 1, -360, 360],
    [9005, 9052, 0.015779999999999999, 0.37486000000000003, 0, 0, 0, 0, 0.93910000000000005, 0, 1, -360, 360],
    [9005, 9053, 0.01602, 0.38046000000000002, 0, 0, 0, 0, 1.0435000000000001, 0, 1, -360, 360],
    [9005, 9054, 0, 0.152, 0, 0, 0, 0, 1.0435000000000001, 0, 1, -360, 360],
    [9005, 9055, 0, 0.80000000000000004, 0, 0, 0, 0, 1.0435000000000001, 0, 1, -360, 360],
    [9006, 9007, 0.055579999999999997, 0.24665999999999999, 0, 0, 0, 0, 0, 0, 1, -360, 360],
    [9006, 9003, 0.11118, 0.49331999999999998, 0, 0, 0, 0, 0, 0, 1, -360, 360],
    [9006, 9003, 0.11118, 0.49331999999999998, 0, 0, 0, 0, 0, 0, 1, -360, 360],
    [9012, 9002, 0.076219999999999996, 0.43286000000000002, 0, 0, 0, 0, 0, 0, 1, -360, 360],
    [9012, 9002, 0.076219999999999996, 0.43286000000000002, 0, 0, 0, 0, 0, 0, 1, -360, 360],
    [9002, 9021, 0.053699999999999998, 0.070260000000000003, 0, 0, 0, 0, 0, 0, 1, -360, 360],
    [9021, 9023, 1.1068, 0.95277999999999996, 0, 0, 0, 0, 0, 0, 1, -360, 360],
    [9021, 9022, 0.44363999999999998, 2.8151999999999999, 0, 0, 0, 0, 1, 0, 1, -360, 360],
    [9002, 9024, 0.50748000000000004, 3.2202000000000002, 0, 0, 0, 0, 1, 0, 1, -360, 360],
    [9023, 9025, 0.66688000000000003, 3.944, 0, 0, 0, 0, 1, 0, 1, -360, 360],
    [9023, 9026, 0.61129999999999995, 3.6152000000000002, 0, 0, 0, 0, 1, 0, 1, -360, 360],
    [9007, 9071, 0.44119999999999998, 2.9668000000000001, 0, 0, 0, 0, 1, 0, 1, -360, 360],
    [9007, 9072, 0.30792000000000003, 2.0569999999999999, 0, 0, 0, 0, 1, 0, 1, -360, 360],
    [9007, 9003, 0.055800000000000002, 0.24665999999999999, 0, 0, 0, 0, 0, 0, 1, -360, 360],
    [9003, 9031, 0.73633000000000004, 4.6723999999999997, 0, 0, 0, 0, 1, 0, 1, -360, 360],
    [9003, 9032, 0.76978000000000002, 4.8845999999999998, 0, 0, 0, 0, 1, 0, 1, -360, 360],
    [9003, 9033, 0.75731999999999999, 4.8056000000000001, 0, 0, 0, 0, 1, 0, 1, -360, 360],
    [9003, 9044, 0.073779999999999998, 0.063519999999999993, 0, 0, 0, 0, 0, 0, 1, -360, 360],
    [9044, 9004, 0.03832, 0.02894, 0, 0, 0, 0, 0, 0, 1, -360, 360],
    [9004, 9041, 0.36614000000000002, 2.456, 0, 0, 0, 0, 1, 0, 1, -360, 360],
    [9004, 9042, 1.0592999999999999, 5.4535999999999998, 0, 0, 0, 0, 1, 0, 1, -360, 360],
    [9004, 9043, 0.15670000000000001, 1.6994, 0, 0, 0, 0, 1, 0, 1, -360, 360],
    [9003, 9034, 0.13006000000000001, 1.3912, 0, 0, 0, 0, 1, 0, 1, -360, 360],
    [9003, 9035, 0.54483999999999999, 3.4571999999999998, 0, 0, 0, 0, 1, 0, 1, -360, 360],
    [9003, 9036, 0.15426000000000001, 1.6729000000000001, 0, 0, 0, 0, 1, 0, 1, -360, 360],
    [9003, 9037, 0.38490000000000002, 2.5712000000000002, 0, 0, 0, 0, 1, 0, 1, -360, 360],
    [9003, 9038, 0.44119999999999998, 2.9668000000000001, 0, 0, 0, 0, 1, 0, 1, -360, 360],
    [9012, 9121, 0.23552000000000001, 0.99036000000000002, 0, 0, 0, 0, 0, 0, 1, -360, 360],
    [9053, 9533, 0, 0.75, 0, 0, 0, 0, 0.95830000000000004, 0, 1, -360, 360],
    [1, 5, 0.001, 0.0060000000000000001, 0, 0, 0, 0, 0, 0, 1, -360, 360],
    [2, 6, 0.001, 0.0089999999999999993, 0, 0, 0, 0, 0, 0, 1, -360, 360],
    [2, 8, 0.0060000000000000001, 0.027, 0.053999999999999999, 0, 0, 0, 0, 0, 1, -360, 360],
    [3, 7, 0, 0.0030000000000000001, 0, 0, 0, 0, 0, 0, 1, -360, 360],
    [3, 19, 0.0080000000000000002, 0.069000000000000006, 0.13900000000000001, 0, 0, 0, 0, 0, 1, -360, 360],
    [3, 150, 0.001, 0.0070000000000000001, 0, 0, 0, 0, 0, 0, 1, -360, 360],
    [4, 16, 0.002, 0.019, 1.127, 0, 0, 0, 0, 0, 1, -360, 360],
    [5, 9, 0.0060000000000000001, 0.029000000000000001, 0.017999999999999999, 0, 0, 0, 0, 0, 1, -360, 360],
    [7, 12, 0.001, 0.0089999999999999993, 0.070000000000000007, 0, 0, 0, 0, 0, 1, -360, 360],
    [7, 131, 0.001, 0.0070000000000000001, 0.014, 0, 0, 0, 0, 0, 1, -360, 360],
    [8, 11, 0.012999999999999999, 0.059499999999999997, 0.033000000000000002, 0, 0, 0, 0, 0, 1, -360, 360],
    [8, 14, 0.012999999999999999, 0.042000000000000003, 0.081000000000000003, 0, 0, 0, 0, 0, 1, -360, 360],
    [9, 11, 0.0060000000000000001, 0.027, 0.012999999999999999, 0, 0, 0, 0, 0, 1, -360, 360],
    [11, 13, 0.0080000000000000002, 0.034000000000000002, 0.017999999999999999, 0, 0, 0, 0, 0, 1, -360, 360],
    [12, 21, 0.002, 0.014999999999999999, 0.11799999999999999, 0, 0, 0, 0, 0, 1, -360, 360],
    [13, 20, 0.0060000000000000001, 0.034000000000000002, 0.016, 0, 0, 0, 0, 0, 1, -360, 360],
    [14, 15, 0.014, 0.042000000000000003, 0.097000000000000003, 0, 0, 0, 0, 0, 1, -360, 360],
    [15, 37, 0.065000000000000002, 0.248, 0.121, 0, 0, 0, 0, 0, 1, -360, 360],
    [15, 89, 0.099000000000000005, 0.248, 0.035000000000000003, 0, 0, 0, 0, 0, 1, -360, 360],
    [15, 90, 0.096000000000000002, 0.36299999999999999, 0.048000000000000001, 0, 0, 0, 0, 0, 1, -360, 360],
    [16, 42, 0.002, 0.021999999999999999, 1.28, 0, 0, 0, 0, 0, 1, -360, 360],
    [19, 21, 0.002, 0.017999999999999999, 0.035999999999999997, 0, 0, 0, 0, 0, 1, -360, 360],
    [19, 87, 0.012999999999999999, 0.080000000000000002, 0.151, 0, 0, 0, 0, 0, 1, -360, 360],
    [20, 22, 0.016, 0.033000000000000002, 0.014999999999999999, 0, 0, 0, 0, 0, 1, -360, 360],
    [20, 27, 0.069000000000000006, 0.186, 0.098000000000000004, 0, 0, 0, 0, 0, 1, -360, 360],
    [21, 24, 0.0040000000000000001, 0.034000000000000002, 0.28000000000000003, 0, 0, 0, 0, 0, 1, -360, 360],
    [22, 23, 0.051999999999999998, 0.111, 0.050000000000000003, 0, 0, 0, 0, 0, 1, -360, 360],
    [23, 25, 0.019, 0.039, 0.017999999999999999, 0, 0, 0, 0, 0, 1, -360, 360],
    [24, 319, 0.0070000000000000001, 0.068000000000000005, 0.13400000000000001, 0, 0, 0, 0, 0, 1, -360, 360],
    [25, 26, 0.035999999999999997, 0.070999999999999994, 0.034000000000000002, 0, 0, 0, 0, 0, 1, -360, 360],
    [26, 27, 0.044999999999999998, 0.12, 0.065000000000000002, 0, 0, 0, 0, 0, 1, -360, 360],
    [26, 320, 0.042999999999999997, 0.13, 0.014, 0, 0, 0, 0, 0, 1, -360, 360],
    [33, 34, 0, 0.063, 0, 0, 0, 0, 0, 0, 1, -360, 360],
    [33, 38, 0.0025000000000000001, 0.012, 0.012999999999999999, 0, 0, 0, 0, 0, 1, -360, 360],
    [33, 40, 0.0060000000000000001, 0.029000000000000001, 0.02, 0, 0, 0, 0, 0, 1, -360, 360],
    [33, 41, 0.0070000000000000001, 0.042999999999999997, 0.025999999999999999, 0, 0, 0, 0, 0, 1, -360, 360],
    [34, 42, 0.001, 0.0080000000000000002, 0.042000000000000003, 0, 0, 0, 0, 0, 1, -360, 360],
    [35, 72, 0.012, 0.059999999999999998, 0.0080000000000000002, 0, 0, 0, 0, 0, 1, -360, 360],
    [35, 76, 0.0060000000000000001, 0.014, 0.002, 0, 0, 0, 0, 0, 1, -360, 360],
    [35, 77, 0.01, 0.029000000000000001, 0.0030000000000000001, 0, 0, 0, 0, 0, 1, -360, 360],
    [36, 88, 0.0040000000000000001, 0.027, 0.042999999999999997, 0, 0, 0, 0, 0, 1, -360, 360],
    [37, 38, 0.0080000000000000002, 0.047, 0.0080000000000000002, 0, 0, 0, 0, 0, 1, -360, 360],
    [37, 40, 0.021999999999999999, 0.064000000000000001, 0.0070000000000000001, 0, 0, 0, 0, 0, 1, -360, 360],
    [37, 41, 0.01, 0.035999999999999997, 0.02, 0, 0, 0, 0, 0, 1, -360, 360],
    [37, 49, 0.017000000000000001, 0.081000000000000003, 0.048000000000000001, 0, 0, 0, 0, 0, 1, -360, 360],
    [37, 89, 0.10199999999999999, 0.254, 0.033000000000000002, 0, 0, 0, 0, 0, 1, -360, 360],
    [37, 90, 0.047, 0.127, 0.016, 0, 0, 0, 0, 0, 1, -360, 360],
    [38, 41, 0.0080000000000000002, 0.036999999999999998, 0.02, 0, 0, 0, 0, 0, 1, -360, 360],
    [38, 43, 0.032000000000000001, 0.086999999999999994, 0.040000000000000001, 0, 0, 0, 0, 0, 1, -360, 360],
    [39, 42, 0.00059999999999999995, 0.0064000000000000003, 0.40400000000000003, 0, 0, 0, 0, 0, 1, -360, 360],
    [40, 48, 0.025999999999999999, 0.154, 0.021999999999999999, 0, 0, 0, 0, 0, 1, -360, 360],
    [41, 42, 0, 0.029000000000000001, 0, 0, 0, 0, 0, 0, 1, -360, 360],
    [41, 49, 0.065000000000000002, 0.191, 0.02, 0, 0, 0, 0, 0, 1, -360, 360],
    [41, 51, 0.031, 0.088999999999999996, 0.035999999999999997, 0, 0, 0, 0, 0, 1, -360, 360],
    [42, 46, 0.002, 0.014, 0.80600000000000005, 0, 0, 0, 0, 0, 1, -360, 360],
    [43, 44, 0.025999999999999999, 0.071999999999999995, 0.035000000000000003, 0, 0, 0, 0, 0, 1, -360, 360],
    [43, 48, 0.095000000000000001, 0.26200000000000001, 0.032000000000000001, 0, 0, 0, 0, 0, 1, -360, 360],
    [43, 53, 0.012999999999999999, 0.039, 0.016, 0, 0, 0, 0, 0, 1, -360, 360],
    [44, 47, 0.027, 0.084000000000000005, 0.039, 0, 0, 0, 0, 0, 1, -360, 360],
    [44, 54, 0.028000000000000001, 0.084000000000000005, 0.036999999999999998, 0, 0, 0, 0, 0, 1, -360, 360],
    [45, 60, 0.0070000000000000001, 0.041000000000000002, 0.312, 0, 0, 0, 0, 0, 1, -360, 360],
    [45, 74, 0.0089999999999999993, 0.053999999999999999, 0.41099999999999998, 0, 0, 0, 0, 0, 1, -360, 360],
    [46, 81, 0.0050000000000000001, 0.042000000000000003, 0.68999999999999995, 0, 0, 0, 0, 0, 1, -360, 360],
    [47, 73, 0.051999999999999998, 0.14499999999999999, 0.072999999999999995, 0, 0, 0, 0, 0, 1, -360, 360],
    [47, 113, 0.042999999999999997, 0.11799999999999999, 0.012999999999999999, 0, 0, 0, 0, 0, 1, -360, 360],
    [48, 107, 0.025000000000000001, 0.062, 0.0070000000000000001, 0, 0, 0, 0, 0, 1, -360, 360],
    [49, 51, 0.031, 0.094, 0.042999999999999997, 0, 0, 0, 0, 0, 1, -360, 360],
    [51, 52, 0.036999999999999998, 0.109, 0.049000000000000002, 0, 0, 0, 0, 0, 1, -360, 360],
    [52, 55, 0.027, 0.080000000000000002, 0.035999999999999997, 0, 0, 0, 0, 0, 1, -360, 360],
    [53, 54, 0.025000000000000001, 0.072999999999999995, 0.035000000000000003, 0, 0, 0, 0, 0, 1, -360, 360],
    [54, 55, 0.035000000000000003, 0.10299999999999999, 0.047, 0, 0, 0, 0, 0, 1, -360, 360],
    [55, 57, 0.065000000000000002, 0.16900000000000001, 0.082000000000000003, 0, 0, 0, 0, 0, 1, -360, 360],
    [57, 58, 0.045999999999999999, 0.080000000000000002, 0.035999999999999997, 0, 0, 0, 0, 0, 1, -360, 360],
    [57, 63, 0.159, 0.53700000000000003, 0.070999999999999994, 0, 0, 0, 0, 0, 1, -360, 360],
    [58, 59, 0.0089999999999999993, 0.025999999999999999, 0.0050000000000000001, 0, 0, 0, 0, 0, 1, -360, 360],
    [59, 61, 0.002, 0.012999999999999999, 0.014999999999999999, 0, 0, 0, 0, 0, 1, -360, 360],
    [60, 62, 0.0089999999999999993, 0.065000000000000002, 0.48499999999999999, 0, 0, 0, 0, 0, 1, -360, 360],
    [62, 64, 0.016, 0.105, 0.20300000000000001, 0, 0, 0, 0, 0, 1, -360, 360],
    [62, 144, 0.001, 0.0070000000000000001, 0.012999999999999999, 0, 0, 0, 0, 0, 1, -360, 360],
    [63, 526, 0.026499999999999999, 0.17199999999999999, 0.025999999999999999, 0, 0, 0, 0, 0, 1, -360, 360],
    [69, 211, 0.050999999999999997, 0.23200000000000001, 0.028000000000000001, 0, 0, 0, 0, 0, 1, -360, 360],
    [69, 79, 0.050999999999999997, 0.157, 0.023, 0, 0, 0, 0, 0, 1, -360, 360],
    [70, 71, 0.032000000000000001, 0.10000000000000001, 0.062, 0, 0, 0, 0, 0, 1, -360, 360],
    [70, 528, 0.02, 0.1234, 0.028000000000000001, 0, 0, 0, 0, 0, 1, -360, 360],
    [71, 72, 0.035999999999999997, 0.13100000000000001, 0.068000000000000005, 0, 0, 0, 0, 0, 1, -360, 360],
    [71, 73, 0.034000000000000002, 0.099000000000000005, 0.047, 0, 0, 0, 0, 0, 1, -360, 360],
    [72, 77, 0.017999999999999999, 0.086999999999999994, 0.010999999999999999, 0, 0, 0, 0, 0, 1, -360, 360],
    [72, 531, 0.025600000000000001, 0.193, 0, 0, 0, 0, 0, 0, 1, -360, 360],
    [73, 76, 0.021000000000000001, 0.057000000000000002, 0.029999999999999999, 0, 0, 0, 0, 0, 1, -360, 360],
    [73, 79, 0.017999999999999999, 0.051999999999999998, 0.017999999999999999, 0, 0, 0, 0, 0, 1, -360, 360],
    [74, 88, 0.0040000000000000001, 0.027, 0.050000000000000003, 0, 0, 0, 0, 0, 1, -360, 360],
    [74, 562, 0.0286, 0.20130000000000001, 0.379, 0, 0, 0, 0, 0, 1, -360, 360],
    [76, 77, 0.016, 0.042999999999999997, 0.0040000000000000001, 0, 0, 0, 0, 0, 1, -360, 360],
    [77, 78, 0.001, 0.0060000000000000001, 0.0070000000000000001, 0, 0, 0, 0, 0, 1, -360, 360],
    [77, 80, 0.014, 0.070000000000000007, 0.037999999999999999, 0, 0, 0, 0, 0, 1, -360, 360],
    [77, 552, 0.089099999999999999, 0.2676, 0.029000000000000001, 0, 0, 0, 0, 0, 1, -360, 360],
    [77, 609, 0.078200000000000006, 0.2127, 0.021999999999999999, 0, 0, 0, 0, 0, 1, -360, 360],
    [78, 79, 0.0060000000000000001, 0.021999999999999999, 0.010999999999999999, 0, 0, 0, 0, 0, 1, -360, 360],
    [78, 84, 0, 0.035999999999999997, 0, 0, 0, 0, 0, 0, 1, -360, 360],
    [79, 211, 0.099000000000000005, 0.375, 0.050999999999999997, 0, 0, 0, 0, 0, 1, -360, 360],
    [80, 211, 0.021999999999999999, 0.107, 0.058000000000000003, 0, 0, 0, 0, 0, 1, -360, 360],
    [81, 194, 0.0035000000000000001, 0.033000000000000002, 0.53000000000000003, 0, 0, 0, 0, 0, 1, -360, 360],
    [81, 195, 0.0035000000000000001, 0.033000000000000002, 0.53000000000000003, 0, 0, 0, 0, 0, 1, -360, 360],
    [85, 86, 0.0080000000000000002, 0.064000000000000001, 0.128, 0, 0, 0, 0, 0, 1, -360, 360],
    [86, 87, 0.012, 0.092999999999999999, 0.183, 0, 0, 0, 0, 0, 1, -360, 360],
    [86, 323, 0.0060000000000000001, 0.048000000000000001, 0.091999999999999998, 0, 0, 0, 0, 0, 1, -360, 360],
    [89, 91, 0.047, 0.11899999999999999, 0.014, 0, 0, 0, 0, 0, 1, -360, 360],
    [90, 92, 0.032000000000000001, 0.17399999999999999, 0.024, 0, 0, 0, 0, 0, 1, -360, 360],
    [91, 94, 0.10000000000000001, 0.253, 0.031, 0, 0, 0, 0, 0, 1, -360, 360],
    [91, 97, 0.021999999999999999, 0.076999999999999999, 0.039, 0, 0, 0, 0, 0, 1, -360, 360],
    [92, 103, 0.019, 0.14399999999999999, 0.017000000000000001, 0, 0, 0, 0, 0, 1, -360, 360],
    [92, 105, 0.017000000000000001, 0.091999999999999998, 0.012, 0, 0, 0, 0, 0, 1, -360, 360],
    [94, 97, 0.27800000000000002, 0.42699999999999999, 0.042999999999999997, 0, 0, 0, 0, 0, 1, -360, 360],
    [97, 100, 0.021999999999999999, 0.052999999999999999, 0.0070000000000000001, 0, 0, 0, 0, 0, 1, -360, 360],
    [97, 102, 0.037999999999999999, 0.091999999999999998, 0.012, 0, 0, 0, 0, 0, 1, -360, 360],
    [97, 103, 0.048000000000000001, 0.122, 0.014999999999999999, 0, 0, 0, 0, 0, 1, -360, 360],
    [98, 100, 0.024, 0.064000000000000001, 0.0070000000000000001, 0, 0, 0, 0, 0, 1, -360, 360],
    [98, 102, 0.034000000000000002, 0.121, 0.014999999999999999, 0, 0, 0, 0, 0, 1, -360, 360],
    [99, 107, 0.052999999999999999, 0.13500000000000001, 0.017000000000000001, 0, 0, 0, 0, 0, 1, -360, 360],
    [99, 108, 0.002, 0.0040000000000000001, 0.002, 0, 0, 0, 0, 0, 1, -360, 360],
    [99, 109, 0.044999999999999998, 0.35399999999999998, 0.043999999999999997, 0, 0, 0, 0, 0, 1, -360, 360],
    [99, 110, 0.050000000000000003, 0.17399999999999999, 0.021999999999999999, 0, 0, 0, 0, 0, 1, -360, 360],
    [100, 102, 0.016, 0.037999999999999999, 0.0040000000000000001, 0, 0, 0, 0, 0, 1, -360, 360],
    [102, 104, 0.042999999999999997, 0.064000000000000001, 0.027, 0, 0, 0, 0, 0, 1, -360, 360],
    [103, 105, 0.019, 0.062, 0.0080000000000000002, 0, 0, 0, 0, 0, 1, -360, 360],
    [104, 108, 0.075999999999999998, 0.13, 0.043999999999999997, 0, 0, 0, 0, 0, 1, -360, 360],
    [104, 322, 0.043999999999999997, 0.124, 0.014999999999999999, 0, 0, 0, 0, 0, 1, -360, 360],
    [105, 107, 0.012, 0.087999999999999995, 0.010999999999999999, 0, 0, 0, 0, 0, 1, -360, 360],
    [105, 110, 0.157, 0.40000000000000002, 0.047, 0, 0, 0, 0, 0, 1, -360, 360],
    [108, 324, 0.073999999999999996, 0.20799999999999999, 0.025999999999999999, 0, 0, 0, 0, 0, 1, -360, 360],
    [109, 110, 0.070000000000000007, 0.184, 0.021000000000000001, 0, 0, 0, 0, 0, 1, -360, 360],
    [109, 113, 0.10000000000000001, 0.27400000000000002, 0.031, 0, 0, 0, 0, 0, 1, -360, 360],
    [109, 114, 0.109, 0.39300000000000002, 0.035999999999999997, 0, 0, 0, 0, 0, 1, -360, 360],
    [110, 112, 0.14199999999999999, 0.40400000000000003, 0.050000000000000003, 0, 0, 0, 0, 0, 1, -360, 360],
    [112, 114, 0.017000000000000001, 0.042000000000000003, 0.0060000000000000001, 0, 0, 0, 0, 0, 1, -360, 360],
    [115, 122, 0.0035999999999999999, 0.019900000000000001, 0.0040000000000000001, 0, 0, 0, 0, 0, 1, -360, 360],
    [116, 120, 0.002, 0.10489999999999999, 0.001, 0, 0, 0, 0, 0, 1, -360, 360],
    [117, 118, 0.0001, 0.0018, 0.017000000000000001, 0, 0, 0, 0, 0, 1, -360, 360],
    [118, 119, 0, 0.027099999999999999, 0, 0, 0, 0, 0, 0, 1, -360, 360],
    [118, 1201, 0, 0.61629999999999996, 0, 0, 0, 0, 0, 0, 1, -360, 360],
    [1201, 120, 0, -0.36969999999999997, 0, 0, 0, 0, 0, 0, 1, -360, 360],
    [118, 121, 0.0022000000000000001, 0.29149999999999998, 0, 0, 0, 0, 0, 0, 1, -360, 360],
    [119, 120, 0, 0.0339, 0, 0, 0, 0, 0, 0, 1, -360, 360],
    [119, 121, 0, 0.058200000000000002, 0, 0, 0, 0, 0, 0, 1, -360, 360],
    [122, 123, 0.080799999999999997, 0.2344, 0.029000000000000001, 0, 0, 0, 0, 0, 1, -360, 360],
    [122, 125, 0.096500000000000002, 0.3669, 0.053999999999999999, 0, 0, 0, 0, 0, 1, -360, 360],
    [123, 124, 0.035999999999999997, 0.1076, 0.11700000000000001, 0, 0, 0, 0, 0, 1, -360, 360],
    [123, 125, 0.047600000000000003, 0.1414, 0.14899999999999999, 0, 0, 0, 0, 0, 1, -360, 360],
    [125, 126, 0.00059999999999999995, 0.019699999999999999, 0, 0, 0, 0, 0, 0, 1, -360, 360],
    [126, 127, 0.0058999999999999999, 0.040500000000000001, 0.25, 0, 0, 0, 0, 0, 1, -360, 360],
    [126, 129, 0.0115, 0.1106, 0.185, 0, 0, 0, 0, 0, 1, -360, 360],
    [126, 132, 0.019800000000000002, 0.16880000000000001, 0.32100000000000001, 0, 0, 0, 0, 0, 1, -360, 360],
    [126, 157, 0.0050000000000000001, 0.050000000000000003, 0.33000000000000002, 0, 0, 0, 0, 0, 1, -360, 360],
    [126, 158, 0.0077000000000000002, 0.053800000000000001, 0.33500000000000002, 0, 0, 0, 0, 0, 1, -360, 360],
    [126, 169, 0.016500000000000001, 0.1157, 0.17100000000000001, 0, 0, 0, 0, 0, 1, -360, 360],
    [127, 128, 0.0058999999999999999, 0.057700000000000001, 0.095000000000000001, 0, 0, 0, 0, 0, 1, -360, 360],
    [127, 134, 0.0048999999999999998, 0.033599999999999998, 0.20799999999999999, 0, 0, 0, 0, 0, 1, -360, 360],
    [127, 168, 0.0058999999999999999, 0.057700000000000001, 0.095000000000000001, 0, 0, 0, 0, 0, 1, -360, 360],
    [128, 130, 0.0077999999999999996, 0.077299999999999994, 0.126, 0, 0, 0, 0, 0, 1, -360, 360],
    [128, 133, 0.0025999999999999999, 0.019300000000000001, 0.029999999999999999, 0, 0, 0, 0, 0, 1, -360, 360],
    [129, 130, 0.0076, 0.075200000000000003, 0.122, 0, 0, 0, 0, 0, 1, -360, 360],
    [129, 133, 0.0020999999999999999, 0.018599999999999998, 0.029999999999999999, 0, 0, 0, 0, 0, 1, -360, 360],
...
    ])

    ##-----  OPF Data  -----##
    ## generator cost data
    # 1 startup shutdown n x1 y1 ... xn yn
    # 2 startup shutdown n c(n-1) ... c0
    ppc["gencost"] = array([
    [2, 0, 0, 3, 0.01, 40, 0],
    [2, 0, 0, 3, 0.01, 40, 0],
    [2, 0, 0, 3, 0.01, 40, 0],
    [2, 0, 0, 3, 0.01, 40, 0],
    [2, 0, 0, 3, 0.01, 40, 0],
    [2, 0, 0, 3, 0.026666666700000001, 20, 0],
    [2, 0, 0, 3, 0.064516129000000005, 20, 0],
    [2, 0, 0, 3, 0.034482758600000003, 20, 0],
    [2, 0, 0, 3, 0.147058824, 20, 0],
    [2, 0, 0, 3, 0.085470085500000001, 20, 0],
    [2, 0, 0, 3, 0.0051813471499999996, 20, 0],
    [2, 0, 0, 3, 0.0416666667, 20, 0],
    [2, 0, 0, 3, 0.01, 40, 0],
    [2, 0, 0, 3, 0.01, 40, 0],
    [2, 0, 0, 3, 0.0355871886, 20, 0],
    [2, 0, 0, 3, 0.0143678161, 20, 0],
    [2, 0, 0, 3, 0.11904761899999999, 20, 0],
    [2, 0, 0, 3, 0.046082949300000002, 20, 0],
    [2, 0, 0, 3, 0.097087378599999996, 20, 0],
    [2, 0, 0, 3, 0.0268817204, 20, 0],
    [2, 0, 0, 3, 0.046296296299999998, 20, 0],
    [2, 0, 0, 3, 0.01, 40, 0],
    [2, 0, 0, 3, 0.048780487800000001, 20, 0],
    [2, 0, 0, 3, 0.01, 40, 0],
    [2, 0, 0, 3, 0.043859649100000002, 20, 0],
    [2, 0, 0, 3, 0.11904761899999999, 20, 0],
    [2, 0, 0, 3, 0.050000000000000003, 20, 0],
    [2, 0, 0, 3, 0.0083333333299999996, 20, 0],
    [2, 0, 0, 3, 0.0083333333299999996, 20, 0],
    [2, 0, 0, 3, 0.0210526316, 20, 0],
    [2, 0, 0, 3, 0.0050684237199999996, 20, 0],
    [2, 0, 0, 3, 0.023584905699999999, 20, 0],
    [2, 0, 0, 3, 0.0367647059, 20, 0],
    [2, 0, 0, 3, 0.10000000000000001, 20, 0],
    [2, 0, 0, 3, 0.022222222199999999, 20, 0],
    [2, 0, 0, 3, 0.040000000000000001, 20, 0],
    [2, 0, 0, 3, 0.033003300300000003, 20, 0],
    [2, 0, 0, 3, 0.0289855072, 20, 0],
    [2, 0, 0, 3, 0.033333333299999997, 20, 0],
    [2, 0, 0, 3, 0.016666666699999999, 20, 0],
    [2, 0, 0, 3, 0.040000000000000001, 20, 0],
    [2, 0, 0, 3, 0.018181818200000002, 20, 0],
    [2, 0, 0, 3, 0.0173783084, 20, 0],
    [2, 0, 0, 3, 0.058823529399999998, 20, 0],
    [2, 0, 0, 3, 0.11904761899999999, 20, 0],
    [2, 0, 0, 3, 0.021413276200000001, 20, 0],
    [2, 0, 0, 3, 0.0160513644, 20, 0],
    [2, 0, 0, 3, 0.0082644628099999996, 20, 0],
    [2, 0, 0, 3, 0.042735042700000003, 20, 0],
    [2, 0, 0, 3, 0.0268817204, 20, 0],
    [2, 0, 0, 3, 0.030303030299999999, 20, 0],
    [2, 0, 0, 3, 0.054054054099999999, 20, 0],
    [2, 0, 0, 3, 0.024390243900000001, 20, 0],
    [2, 0, 0, 3, 0.02, 20, 0],
    [2, 0, 0, 3, 0.27027026999999998, 20, 0],
    [2, 0, 0, 3, 0.01, 40, 0],
    [2, 0, 0, 3, 0.222222222, 20, 0],
    [2, 0, 0, 3, 0.060606060599999997, 20, 0],
    [2, 0, 0, 3, 0.025000000000000001, 20, 0],
    [2, 0, 0, 3, 0.025000000000000001, 20, 0],
    [2, 0, 0, 3, 0.086206896599999999, 20, 0],
    [2, 0, 0, 3, 0.0077399380799999997, 20, 0],
    [2, 0, 0, 3, 0.0142857143, 20, 0],
    [2, 0, 0, 3, 0.018083182600000001, 20, 0],
    [2, 0, 0, 3, 0.01, 40, 0],
    [2, 0, 0, 3, 0.01, 40, 0],
    [2, 0, 0, 3, 0.01, 40, 0],
    [2, 0, 0, 3, 0.20000000000000001, 20, 0],
    [2, 0, 0, 3, 1.25, 20, 0]
    ])

    ppc["extensions"] = array([
    [17, 14, 0.20000000000000001, 0.20000000000000001, 0.050000000000000003, 9900, 0, 0, 1, 0, 0, -360, 360],
    [17, 102, 0.20000000000000001, 0.20000000000000001, 0.050000000000000003, 9900, 0, 0, 1, 0, 0, -360, 360],
    [17, 37, 0.20000000000000001, 0.20000000000000001, 0.050000000000000003, 9900, 0, 0, 1, 0, 0, -360, 360],
    [17, 107, 0.20000000000000001, 0.20000000000000001, 0.050000000000000003, 9900, 0, 0, 1, 0, 0, -360, 360],
    [17, 48, 0.20000000000000001, 0.20000000000000001, 0.050000000000000003, 9900, 0, 0, 1, 0, 0, -360, 360],
    [17, 110, 0.20000000000000001, 0.20000000000000001, 0.050000000000000003, 9900, 0, 0, 1, 0, 0, -360, 360],
    [192, 281, 0.20000000000000001, 0.20000000000000001, 0.050000000000000003, 9900, 0, 0, 1, 0, 0, -360, 360],
    [192, 240, 0.20000000000000001, 0.20000000000000001, 0.050000000000000003, 9900, 0, 0, 1, 0, 0, -360, 360],
    [192, 233, 0.20000000000000001, 0.20000000000000001, 0.050000000000000003, 9900, 0, 0, 1, 0, 0, -360, 360],
    [192, 190, 0.20000000000000001, 0.20000000000000001, 0.050000000000000003, 9900, 0, 0, 1, 0, 0, -360, 360],
    [192, 180, 0.20000000000000001, 0.20000000000000001, 0.050000000000000003, 9900, 0, 0, 1, 0, 0, -360, 360],
    [192, 232, 0.20000000000000001, 0.20000000000000001, 0.050000000000000003, 9900, 0, 0, 1, 0, 0, -360, 360],
    [192, 230, 0.20000000000000001, 0.20000000000000001, 0.050000000000000003, 9900, 0, 0, 1, 0, 0, -360, 360],
    [9003, 7017, 0.20000000000000001, 0.20000000000000001, 0.050000000000000003, 9900, 0, 0, 1, 0, 0, -360, 360],
    [9003, 9533, 0.20000000000000001, 0.20000000000000001, 0.050000000000000003, 9900, 0, 0, 1, 0, 0, -360, 360],
    [9003, 7049, 0.20000000000000001, 0.20000000000000001, 0.050000000000000003, 9900, 0, 0, 1, 0, 0, -360, 360],
    [170, 7130, 0.20000000000000001, 0.20000000000000001, 0.050000000000000003, 9900, 0, 0, 1, 0, 0, -360, 360],
    [170, 184, 0.20000000000000001, 0.20000000000000001, 0.050000000000000003, 9900, 0, 0, 1, 0, 0, -360, 360],
    [170, 185, 0.20000000000000001, 0.20000000000000001, 0.050000000000000003, 9900, 0, 0, 1, 0, 0, -360, 360],
    [170, 7001, 0.20000000000000001, 0.20000000000000001, 0.050000000000000003, 9900, 0, 0, 1, 0, 0, -360, 360],
    [170, 7012, 0.20000000000000001, 0.20000000000000001, 0.050000000000000003, 9900, 0, 0, 1, 0, 0, -360, 360],
    [117, 124, 0.20000000000000001, 0.20000000000000001, 0.050000000000000003, 9900, 0, 0, 1, 0, 0, -360, 360],
    [117, 116, 0.20000000000000001, 0.20000000000000001, 0.050000000000000003, 9900, 0, 0, 1, 0, 0, -360, 360],
    [117, 148, 0.20000000000000001, 0.20000000000000001, 0.050000000000000003, 9900, 0, 0, 1, 0, 0, -360, 360],
    [117, 141, 0.20000000000000001, 0.20000000000000001, 0.050000000000000003, 9900, 0, 0, 1, 0, 0, -360, 360],
    [117, 137, 0.20000000000000001, 0.20000000000000001, 0.050000000000000003, 9900, 0, 0, 1, 0, 0, -360, 360],
    [118, 116, 0.20000000000000001, 0.20000000000000001, 0.050000000000000003, 9900, 0, 0, 1, 0, 0, -360, 360],
    [118, 1190, 0.20000000000000001, 0.20000000000000001, 0.050000000000000003, 9900, 0, 0, 1, 0, 0, -360, 360],
    [118, 149, 0.20000000000000001, 0.20000000000000001, 0.050000000000000003, 9900, 0, 0, 1, 0, 0, -360, 360],
    [118, 148, 0.20000000000000001, 0.20000000000000001, 0.050000000000000003, 9900, 0, 0, 1, 0, 0, -360, 360],
    [118, 143, 0.20000000000000001, 0.20000000000000001, 0.050000000000000003, 9900, 0, 0, 1, 0, 0, -360, 360],
    [148, 64, 0.20000000000000001, 0.20000000000000001, 0.050000000000000003, 9900, 0, 0, 1, 0, 0, -360, 360],
    [148, 552, 0.20000000000000001, 0.20000000000000001, 0.050000000000000003, 9900, 0, 0, 1, 0, 0, -360, 360],
    [148, 180, 0.20000000000000001, 0.20000000000000001, 0.050000000000000003, 9900, 0, 0, 1, 0, 0, -360, 360],
    [148, 118, 0.20000000000000001, 0.20000000000000001, 0.050000000000000003, 9900, 0, 0, 1, 0, 0, -360, 360],
    [148, 121, 0.20000000000000001, 0.20000000000000001, 0.050000000000000003, 9900, 0, 0, 1, 0, 0, -360, 360],
    [148, 117, 0.20000000000000001, 0.20000000000000001, 0.050000000000000003, 9900, 0, 0, 1, 0, 0, -360, 360],
    [149, 180, 0.20000000000000001, 0.20000000000000001, 0.050000000000000003, 9900, 0, 0, 1, 0, 0, -360, 360],
    [149, 178, 0.20000000000000001, 0.20000000000000001, 0.050000000000000003, 9900, 0, 0, 1, 0, 0, -360, 360],
    [149, 118, 0.20000000000000001, 0.20000000000000001, 0.050000000000000003, 9900, 0, 0, 1, 0, 0, -360, 360],
    [149, 121, 0.20000000000000001, 0.20000000000000001, 0.050000000000000003, 9900, 0, 0, 1, 0, 0, -360, 360],
    [149, 117, 0.20000000000000001, 0.20000000000000001, 0.050000000000000003, 9900, 0, 0, 1, 0, 0, -360, 360],
    [178, 149, 0.20000000000000001, 0.20000000000000001, 0.050000000000000003, 9900, 0, 0, 1, 0, 0, -360, 360],
    [178, 176, 0.20000000000000001, 0.20000000000000001, 0.050000000000000003, 9900, 0, 0, 1, 0, 0, -360, 360],
    [178, 174, 0.20000000000000001, 0.20000000000000001, 0.050000000000000003, 9900, 0, 0, 1, 0, 0, -360, 360],
    [178, 146, 0.20000000000000001, 0.20000000000000001, 0.050000000000000003, 9900, 0, 0, 1, 0, 0, -360, 360],
    [174, 175, 0.20000000000000001, 0.20000000000000001, 0.050000000000000003, 9900, 0, 0, 1, 0, 0, -360, 360],
    [174, 178, 0.20000000000000001, 0.20000000000000001, 0.050000000000000003, 9900, 0, 0, 1, 0, 0, -360, 360],
    [174, 117, 0.20000000000000001, 0.20000000000000001, 0.050000000000000003, 9900, 0, 0, 1, 0, 0, -360, 360],
    [174, 118, 0.20000000000000001, 0.20000000000000001, 0.050000000000000003, 9900, 0, 0, 1, 0, 0, -360, 360],
    [186, 164, 0.20000000000000001, 0.20000000000000001, 0.050000000000000003, 9900, 0, 0, 1, 0, 0, -360, 360],
    [186, 135, 0.20000000000000001, 0.20000000000000001, 0.050000000000000003, 9900, 0, 0, 1, 0, 0, -360, 360],
    [186, 171, 0.20000000000000001, 0.20000000000000001, 0.050000000000000003, 9900, 0, 0, 1, 0, 0, -360, 360],
    [186, 170, 0.20000000000000001, 0.20000000000000001, 0.050000000000000003, 9900, 0, 0, 1, 0, 0, -360, 360],
    [187, 164, 0.20000000000000001, 0.20000000000000001, 0.050000000000000003, 9900, 0, 0, 1, 0, 0, -360, 360],
    [187, 115, 0.20000000000000001, 0.20000000000000001, 0.050000000000000003, 9900, 0, 0, 1, 0, 0, -360, 360],
    [187, 171, 0.20000000000000001, 0.20000000000000001, 0.050000000000000003, 9900, 0, 0, 1, 0, 0, -360, 360],
    [187, 156, 0.20000000000000001, 0.20000000000000001, 0.050000000000000003, 9900, 0, 0, 1, 0, 0, -360, 360],
    [187, 183, 0.20000000000000001, 0.20000000000000001, 0.050000000000000003, 9900, 0, 0, 1, 0, 0, -360, 360],
    [187, 154, 0.20000000000000001, 0.20000000000000001, 0.050000000000000003, 9900, 0, 0, 1, 0, 0, -360, 360]
    ])
    
    return ppc
